andes/cases/npcc/npcc48.raw
0,   100.00,  32, 0, 1, 60.00     / PSS(R)E 32 RAW created by rawd32  THU, AUG 24 2017  12:31
PSS(R)E PROGRAM APPLICATION GUIDE EXAMPLE
BASE CASE INCLUDING SEQUENCE DATA
     1,'BUS1        ',   1.0000,1,   1,   1,   1,1.01106,   4.9673
     2,'BUS2        ',   1.0000,1,   1,   1,   1,1.00671,   4.1743
     3,'BUS3        ',   1.0000,1,   1,   1,   1,1.04697,   4.1231
     4,'BUS4        ',   1.0000,1,   1,   1,   1,1.00761,   4.2162
     5,'BUS5        ',   1.0000,1,   1,   1,   1,1.00375,   2.4515
     6,'BUS6        ',   1.0000,1,   1,   1,   1,1.00700,   1.9410
     7,'BUS7        ',   1.0000,1,   1,   1,   1,1.02327,   3.3326
     8,'BUS8        ',   1.0000,1,   1,   1,   1,1.02257,   2.0772
     9,'BUS9        ',   1.0000,1,   1,   1,   1,1.01816,   1.1605
    10,'BUS10       ',   1.0000,1,   1,   1,   1,1.04203,   7.9758
    11,'BUS11       ',   1.0000,1,   1,   1,   1,0.98410,   6.5006
    12,'BUS12       ',   1.0000,1,   1,   1,   1,1.02508,   6.0037
    13,'BUS13       ',   1.0000,1,   1,   1,   1,1.04576,  10.7310
    14,'BUS14       ',   1.0000,1,   1,   1,   1,1.03995,  10.4428
    15,'BUS15       ',   1.0000,1,   1,   1,   1,1.02922,   3.5069
    16,'BUS16       ',   1.0000,1,   1,   1,   1,1.03936,   4.5665
    17,'BUS17       ',   1.0000,1,   1,   1,   1,1.03977,   3.3604
    18,'BUS18       ',   1.0000,1,   1,   1,   1,1.02598,   1.5887
    19,'BUS19       ',   1.0000,1,   1,   1,   1,1.04084,   6.5534
    20,'BUS20       ',   1.0000,1,   1,   1,   1,1.04161,   9.2338
    21,'BUS21       ',   1.0000,2,   1,   1,   1,0.98000,  13.0375
    22,'BUS22       ',   1.0000,2,   1,   1,   1,0.99000,  13.2707
    23,'BUS23       ',   1.0000,2,   1,   1,   1,1.00660,  11.7012
    24,'BUS24       ',   1.0000,2,   1,   1,   1,1.05000,  16.0926
    25,'BUS25       ',   1.0000,2,   1,   1,   1,1.06000,  18.3573
    26,'BUS26       ',   1.0000,2,   1,   1,   1,1.02000,  16.1348
    27,'BUS27       ',   1.0000,2,   1,   1,   1,1.02000,  11.5086
    28,'BUS28       ',   1.0000,1,   1,   1,   1,1.05066,   3.3477
    29,'BUS29       ',   1.0000,1,   1,   1,   1,1.02503,   3.3477
    30,'BUS30       ',   1.0000,1,   1,   1,   1,1.01463,   0.8193
    31,'BUS31       ',   1.0000,1,   1,   1,   1,0.99468,   0.4873
    32,'BUS32       ',   1.0000,1,   1,   1,   1,0.99915,   1.9443
    33,'BUS33       ',   1.0000,1,   1,   1,   1,1.00190,   2.6495
    34,'BUS34       ',   1.0000,1,   1,   1,   1,0.99175,   0.5848
    35,'BUS35       ',   1.0000,1,   1,   1,   1,0.99104,   0.1558
    36,'BUS36       ',   1.0000,2,   1,   1,   1,0.98000,  11.1884
    37,'BUS37       ',   1.0000,1,   1,   1,   1,1.03589,   4.8062
    38,'BUS38       ',   1.0000,1,   1,   1,   1,1.03543,   7.1824
    39,'BUS39       ',   1.0000,1,   1,   1,   1,1.03483,   3.4150
    40,'BUS40       ',   1.0000,1,   1,   1,   1,1.00162,   0.7096
    41,'BUS41       ',   1.0000,1,   1,   1,   1,1.03450,  -3.1287
    42,'BUS42       ',   1.0000,2,   1,   1,   1,1.04000,  -2.2394
    43,'BUS43       ',   1.0000,1,   1,   1,   1,1.04361,   8.6587
    44,'BUS44       ',   1.0000,1,   1,   1,   1,1.03979,   6.8811
    45,'BUS45       ',   1.0000,1,   1,   1,   1,1.03720,   4.2599
    46,'BUS46       ',   1.0000,2,   1,   1,   1,1.04000,   6.8444
    47,'BUS47       ',   1.0000,2,   1,   1,   1,1.03000,  12.2324
    48,'BUS48       ',   1.0000,2,   1,   1,   1,1.05000,  15.5809
    49,'BUS49       ',   1.0000,1,   1,   1,   1,0.97386,  -0.6260
    50,'BUS50       ',   1.0000,2,   1,   1,   1,1.05000,  13.5589
    51,'BUS51       ',   1.0000,2,   1,   1,   1,1.04000,   8.8364
    52,'BUS52       ',   1.0000,1,   1,   1,   1,1.04055,  19.8649
    53,'BUS53       ',   1.0000,2,   1,   1,   1,1.03000,  18.4517
    54,'BUS54       ',   1.0000,2,   1,   1,   1,1.04080,  27.5273
    55,'BUS55       ',   1.0000,2,   1,   1,   1,1.04000,  26.8220
    56,'BUS56       ',   1.0000,2,   1,   1,   1,1.03000,  27.4362
    57,'BUS57       ',   1.0000,2,   1,   1,   1,1.03000,  26.3898
    58,'BUS58       ',   1.0000,1,   1,   1,   1,1.00190,  25.1114
    59,'BUS59       ',   1.0000,1,   1,   1,   1,1.02291,  22.7902
    60,'BUS60       ',   1.0000,2,   1,   1,   1,1.04000,  30.8201
    61,'BUS61       ',   1.0000,2,   1,   1,   1,1.04000,  27.5061
    62,'BUS62       ',   1.0000,1,   1,   1,   1,1.01028,  24.4713
    63,'BUS63       ',   1.0000,1,   1,   1,   1,1.00277,  17.9754
    64,'BUS64       ',   1.0000,1,   1,   1,   1,1.00551,  14.8820
    65,'BUS65       ',   1.0000,2,   1,   1,   1,1.04000,  16.1268
    66,'BUS66       ',   1.0000,1,   1,   1,   1,1.01931,  20.9978
    67,'BUS67       ',   1.0000,1,   1,   1,   1,1.00204,  16.8470
    68,'BUS68       ',   1.0000,2,   1,   1,   1,0.99000,  12.9323
    69,'BUS69       ',   1.0000,1,   1,   1,   1,1.01774,  14.5210
    70,'BUS70       ',   1.0000,1,   1,   1,   1,0.99874,  13.7665
    71,'BUS71       ',   1.0000,2,   1,   1,   1,1.00000,  11.3448
    72,'BUS72       ',   1.0000,2,   1,   1,   1,1.05000,  10.3801
    73,'BUS73       ',   1.0000,1,   1,   1,   1,1.02946,   1.7136
    74,'BUS74       ',   1.0000,1,   1,   1,   1,1.02681,   0.3085
    75,'BUS75       ',   1.0000,1,   1,   1,   1,1.04254,   1.2276
    76,'BUS76       ',   1.0000,1,   1,   1,   1,1.04847,   0.7665
    77,'BUS77       ',   1.0000,1,   1,   1,   1,1.03604,   0.5518
    78,'BUS78       ',   1.0000,3,   1,   1,   1,1.02000,   0.0000
    79,'BUS79       ',   1.0000,2,   1,   1,   1,1.05000,   8.1715
    80,'BUS80       ',   1.0000,2,   1,   1,   1,1.02320,   0.6309
    81,'BUS81       ',   1.0000,1,   1,   1,   1,1.02079,  -3.3122
    82,'BUS82       ',   1.0000,2,   1,   1,   1,1.05000,   7.5680
    83,'BUS83       ',   1.0000,1,   1,   1,   1,1.00978,  23.2463
    84,'BUS84       ',   1.0000,1,   1,   1,   1,1.01376,  23.7268
    85,'BUS85       ',   1.0000,1,   1,   1,   1,1.07974,  35.0454
    86,'BUS86       ',   1.0000,2,   1,   1,   1,1.00000,  40.4251
    87,'BUS87       ',   1.0000,1,   1,   1,   1,1.01963,  32.9817
    88,'BUS88       ',   1.0000,1,   1,   1,   1,1.05143,  31.9819
    89,'BUS89       ',   1.0000,1,   1,   1,   1,1.01835,  29.6555
    90,'BUS90       ',   1.0000,1,   1,   1,   1,1.01272,  29.5600
    91,'BUS91       ',   1.0000,2,   1,   1,   1,1.03978,  12.2711
    92,'BUS92       ',   1.0000,2,   1,   1,   1,1.04000,  19.7610
    93,'BUS93       ',   1.0000,1,   1,   1,   1,0.97646,   8.7753
    94,'BUS94       ',   1.0000,1,   1,   1,   1,0.97688,   9.0159
    95,'BUS95       ',   1.0000,1,   1,   1,   1,0.97877,  15.7019
    96,'BUS96       ',   1.0000,1,   1,   1,   1,1.02594,  16.2694
    97,'BUS97       ',   1.0000,2,   1,   1,   1,1.04000,  15.1340
    98,'BUS98       ',   1.0000,2,   1,   1,   1,1.04000,  32.7633
    99,'BUS99       ',   1.0000,1,   1,   1,   1,1.03957,  32.0847
   100,'BUS100      ',   1.0000,1,   1,   1,   1,1.04277,  26.9138
   101,'BUS101      ',   1.0000,2,   1,   1,   1,1.05000,  25.1190
   102,'BUS102      ',   1.0000,1,   1,   1,   1,1.02112,  26.2610
   103,'BUS103      ',   1.0000,1,   1,   1,   1,1.01172,  26.0701
   104,'BUS104      ',   1.0000,1,   1,   1,   1,1.00644,  14.1552
   105,'BUS105      ',   1.0000,1,   1,   1,   1,1.03170,  24.3649
   106,'BUS106      ',   1.0000,1,   1,   1,   1,1.00890,  15.5415
   107,'BUS107      ',   1.0000,1,   1,   1,   1,1.01870,  16.8350
   108,'BUS108      ',   1.0000,1,   1,   1,   1,1.00982,  14.8858
   109,'BUS109      ',   1.0000,1,   1,   1,   1,1.00980,  14.8621
   110,'BUS110      ',   1.0000,1,   1,   1,   1,1.01063,  13.4385
   111,'BUS111      ',   1.0000,1,   1,   1,   1,0.98286,  11.2051
   112,'BUS112      ',   1.0000,1,   1,   1,   1,1.04850,  29.1492
   113,'BUS113      ',   1.0000,1,   1,   1,   1,1.01070,  22.7798
   114,'BUS114      ',   1.0000,1,   1,   1,   1,1.00590,  30.0845
   115,'BUS115      ',   1.0000,2,   1,   1,   1,1.02000,  32.8101
   116,'BUS116      ',   1.0000,1,   1,   1,   1,1.00709,  26.4745
   117,'BUS117      ',   1.0000,1,   1,   1,   1,1.00617,  30.3069
   118,'BUS118      ',   1.0000,1,   1,   1,   1,1.00028,  31.2642
   119,'BUS119      ',   1.0000,2,   1,   1,   1,1.00000,  29.7037
   120,'BUS120      ',   1.0000,2,   1,   1,   1,1.02000,  26.1593
   121,'BUS121      ',   1.0000,2,   1,   1,   1,1.04000,  32.3968
   122,'BUS122      ',   1.0000,2,   1,   1,   1,1.05000,  31.9158
   123,'BUS123      ',   1.0000,2,   1,   1,   1,1.01000,  37.0854
   124,'BUS124      ',   1.0000,1,   1,   1,   1,1.04167,   2.3485
   125,'BUS125      ',   1.0000,1,   1,   1,   1,1.02073,  -3.4446
   126,'BUS126      ',   1.0000,1,   1,   1,   1,1.02075,  -5.4419
   127,'BUS127      ',   1.0000,1,   1,   1,   1,1.04632,   6.5284
   128,'BUS128      ',   1.0000,1,   1,   1,   1,1.03749,   2.6987
   129,'BUS129      ',   1.0000,1,   1,   1,   1,1.02293,   8.9075
   130,'BUS130      ',   1.0000,2,   1,   1,   1,1.02000,  12.1637
   131,'BUS131      ',   1.0000,1,   1,   1,   1,1.02607,  13.3743
   132,'BUS132      ',   1.0000,1,   1,   1,   1,1.03927,  19.5453
   133,'BUS133      ',   1.0000,2,   1,   1,   1,1.02000,  34.3145
   134,'BUS134      ',   1.0000,2,   1,   1,   1,1.03000,  25.6495
   135,'BUS135      ',   1.0000,2,   1,   1,   1,1.02000,  34.9675
   136,'BUS136      ',   1.0000,1,   1,   1,   1,1.00058,  19.7231
   137,'BUS137      ',   1.0000,2,   1,   1,   1,1.04000,  20.3332
   138,'BUS138      ',   1.0000,1,   1,   1,   1,0.97002,  13.6814
   139,'BUS139      ',   1.0000,2,   1,   1,   1,1.01000,  29.1729
   140,'BUS140      ',   1.0000,1,   1,   1,   1,1.04132,  30.8122
 0 /End of Bus data, Begin Load data
     3,'1 ',1,   1,   1,     9.000,    88.000,     0.000,     0.000,     0.000,     0.000,   1,1
     6,'1 ',1,   1,   1,   320.000,   153.000,     0.000,     0.000,     0.000,     0.000,   1,1
     7,'1 ',1,   1,   1,   329.000,    32.000,     0.000,     0.000,     0.000,     0.000,   1,1
     9,'1 ',1,   1,   1,   158.000,    30.000,     0.000,     0.000,     0.000,     0.000,   1,1
    11,'1 ',1,   1,   1,   680.000,   103.000,     0.000,     0.000,     0.000,     0.000,   1,1
    12,'1 ',1,   1,   1,   274.000,   115.000,     0.000,     0.000,     0.000,     0.000,   1,1
    14,'1 ',1,   1,   1,   248.000,    85.000,     0.000,     0.000,     0.000,     0.000,   1,1
    15,'1 ',1,   1,   1,   309.000,   -92.000,     0.000,     0.000,     0.000,     0.000,   1,1
    16,'1 ',1,   1,   1,   224.000,    47.000,     0.000,     0.000,     0.000,     0.000,   1,1
    17,'1 ',1,   1,   1,   139.000,    17.000,     0.000,     0.000,     0.000,     0.000,   1,1
    18,'1 ',1,   1,   1,   281.000,    76.000,     0.000,     0.000,     0.000,     0.000,   1,1
    19,'1 ',1,   1,   1,   206.000,    28.000,     0.000,     0.000,     0.000,     0.000,   1,1
    20,'1 ',1,   1,   1,   284.000,    27.000,     0.000,     0.000,     0.000,     0.000,   1,1
    30,'1 ',1,   1,   1,   322.000,     2.000,     0.000,     0.000,     0.000,     0.000,   1,1
    31,'1 ',1,   1,   1,   500.000,   184.000,     0.000,     0.000,     0.000,     0.000,   1,1
    34,'1 ',1,   1,   1,   234.000,    84.000,     0.000,     0.000,     0.000,     0.000,   1,1
    35,'1 ',1,   1,   1,   522.000,   177.000,     0.000,     0.000,     0.000,     0.000,   1,1
    36,'1 ',1,   1,   1,     9.000,     5.000,     0.000,     0.000,     0.000,     0.000,   1,1
    41,'1 ',1,   1,   1,   700.000,   125.000,     0.000,     0.000,     0.000,     0.000,   1,1
    42,'1 ',1,   1,   1,   177.000,    17.000,     0.000,     0.000,     0.000,     0.000,   1,1
    45,'1 ',1,   1,   1,   256.000,    17.000,     0.000,     0.000,     0.000,     0.000,   1,1
    46,'1 ',1,   1,   1,   177.000,    25.000,     0.000,     0.000,     0.000,     0.000,   1,1
    47,'1 ',1,   1,   1,   528.000,   100.000,     0.000,     0.000,     0.000,     0.000,   1,1
    49,'1 ',1,   1,   1,   208.000,    17.000,     0.000,     0.000,     0.000,     0.000,   1,1
    51,'1 ',1,   1,   1,   731.000,    75.000,     0.000,     0.000,     0.000,     0.000,   1,1
    53,'1 ',1,   1,   1,   923.000,   250.000,     0.000,     0.000,     0.000,     0.000,   1,1
    54,'1 ',1,   1,   1,    20.000,     0.000,     0.000,     0.000,     0.000,     0.000,   1,1
    55,'1 ',1,   1,   1,   939.000,   132.000,     0.000,     0.000,     0.000,     0.000,   1,1
    56,'1 ',1,   1,   1,   172.000,    44.000,     0.000,     0.000,     0.000,     0.000,   1,1
    57,'1 ',1,   1,   1,   240.000,    -6.000,     0.000,     0.000,     0.000,     0.000,   1,1
    58,'1 ',1,   1,   1,    84.000,    38.000,     0.000,     0.000,     0.000,     0.000,   1,1
    59,'1 ',1,   1,   1,   705.000,   198.000,     0.000,     0.000,     0.000,     0.000,   1,1
    61,'1 ',1,   1,   1,   237.000,     8.000,     0.000,     0.000,     0.000,     0.000,   1,1
    64,'1 ',1,   1,   1,   143.000,    25.000,     0.000,     0.000,     0.000,     0.000,   1,1
    65,'1 ',1,   1,   1,    91.000,     0.000,     0.000,     0.000,     0.000,     0.000,   1,1
    68,'1 ',1,   1,   1,   211.000,    41.000,     0.000,     0.000,     0.000,     0.000,   1,1
    71,'1 ',1,   1,   1,   371.000,    53.000,     0.000,     0.000,     0.000,     0.000,   1,1
    74,'1 ',1,   1,   1,   102.000,     0.000,     0.000,     0.000,     0.000,     0.000,   1,1
    78,'1 ',1,   1,   1,  2000.000,   600.000,     0.000,     0.000,     0.000,     0.000,   1,1
    80,'1 ',1,   1,   1,   700.000,    25.000,     0.000,     0.000,     0.000,     0.000,   1,1
    83,'1 ',1,   1,   1,    80.000,    16.000,     0.000,     0.000,     0.000,     0.000,   1,1
    85,'1 ',1,   1,   1,    18.000,     0.000,     0.000,     0.000,     0.000,     0.000,   1,1
    86,'1 ',1,   1,   1,    50.000,    25.000,     0.000,     0.000,     0.000,     0.000,   1,1
    88,'1 ',1,   1,   1,   110.000,    55.000,     0.000,     0.000,     0.000,     0.000,   1,1
    89,'1 ',1,   1,   1,   100.000,    70.000,     0.000,     0.000,     0.000,     0.000,   1,1
    90,'1 ',1,   1,   1,   115.000,    45.000,     0.000,     0.000,     0.000,     0.000,   1,1
    91,'1 ',1,   1,   1,  1650.000,   500.000,     0.000,     0.000,     0.000,     0.000,   1,1
    92,'1 ',1,   1,   1,    10.000,   320.000,     0.000,     0.000,     0.000,     0.000,   1,1
    93,'1 ',1,   1,   1,   125.000,     0.000,     0.000,     0.000,     0.000,     0.000,   1,1
    94,'1 ',1,   1,   1,    95.000,     0.000,     0.000,     0.000,     0.000,     0.000,   1,1
    95,'1 ',1,   1,   1,  -100.000,    87.000,     0.000,     0.000,     0.000,     0.000,   1,1
    96,'1 ',1,   1,   1,   -40.000,   -25.000,     0.000,     0.000,     0.000,     0.000,   1,1
    97,'1 ',1,   1,   1,   910.000,    50.000,     0.000,     0.000,     0.000,     0.000,   1,1
   101,'1 ',1,   1,   1,   350.000,   130.000,     0.000,     0.000,     0.000,     0.000,   1,1
   104,'1 ',1,   1,   1,   200.000,    90.000,     0.000,     0.000,     0.000,     0.000,   1,1
   105,'1 ',1,   1,   1,   325.000,     0.000,     0.000,     0.000,     0.000,     0.000,   1,1
   106,'1 ',1,   1,   1,     0.000,   -12.000,     0.000,     0.000,     0.000,     0.000,   1,1
   107,'1 ',1,   1,   1,     0.000,   -19.000,     0.000,     0.000,     0.000,     0.000,   1,1
   108,'1 ',1,   1,   1,     0.000,   -13.000,     0.000,     0.000,     0.000,     0.000,   1,1
   109,'1 ',1,   1,   1,     0.000,   -13.000,     0.000,     0.000,     0.000,     0.000,   1,1
   110,'1 ',1,   1,   1,   718.000,   125.000,     0.000,     0.000,     0.000,     0.000,   1,1
   111,'1 ',1,   1,   1,   399.000,    45.000,     0.000,     0.000,     0.000,     0.000,   1,1
   113,'1 ',1,   1,   1,   206.000,     0.000,     0.000,     0.000,     0.000,     0.000,   1,1
   114,'1 ',1,   1,   1,     0.000,    90.000,     0.000,     0.000,     0.000,     0.000,   1,1
   115,'1 ',1,   1,   1,   100.000,     0.000,     0.000,     0.000,     0.000,     0.000,   1,1
   116,'1 ',1,   1,   1,   200.000,     0.000,     0.000,     0.000,     0.000,     0.000,   1,1
   117,'1 ',1,   1,   1,   400.000,    97.000,     0.000,     0.000,     0.000,     0.000,   1,1
   118,'1 ',1,   1,   1,   280.000,    86.000,     0.000,     0.000,     0.000,     0.000,   1,1
   119,'1 ',1,   1,   1,   750.000,   200.000,     0.000,     0.000,     0.000,     0.000,   1,1
   120,'1 ',1,   1,   1,   946.000,   -40.000,     0.000,     0.000,     0.000,     0.000,   1,1
   123,'1 ',1,   1,   1,    63.000,    10.000,     0.000,     0.000,     0.000,     0.000,   1,1
   124,'1 ',1,   1,   1,   370.000,    49.000,     0.000,     0.000,     0.000,     0.000,   1,1
   125,'1 ',1,   1,   1,   320.000,     5.000,     0.000,     0.000,     0.000,     0.000,   1,1
   126,'1 ',1,   1,   1,   450.000,     0.000,     0.000,     0.000,     0.000,     0.000,   1,1
   127,'1 ',1,   1,   1,   200.000,  -150.000,     0.000,     0.000,     0.000,     0.000,   1,1
   128,'1 ',1,   1,   1,   970.000,  -102.000,     0.000,     0.000,     0.000,     0.000,   1,1
   129,'1 ',1,   1,   1,   610.000,   -50.000,     0.000,     0.000,     0.000,     0.000,   1,1
   130,'1 ',1,   1,   1,   180.000,     0.000,     0.000,     0.000,     0.000,     0.000,   1,1
   131,'1 ',1,   1,   1,  1160.000,  -432.000,     0.000,     0.000,     0.000,     0.000,   1,1
   132,'1 ',1,   1,   1,   210.000,  -337.000,     0.000,     0.000,     0.000,     0.000,   1,1
   135,'1 ',1,   1,   1,   170.000,     0.000,     0.000,     0.000,     0.000,     0.000,   1,1
   136,'1 ',1,   1,   1,   270.000,   223.000,     0.000,     0.000,     0.000,     0.000,   1,1
   138,'1 ',1,   1,   1,   110.000,    64.000,     0.000,     0.000,     0.000,     0.000,   1,1
 0 /End of Load data, Begin Fixed shunt data
 0 /End of Fixed shunt data, Begin Generator data
    21,'1 ',   650.000,   217.767,   999.000,  -999.000,0.98000,     0,   100.000, 0.00000E+0, 2.90000E-2, 0.00000E+0, 0.00000E+0,1.00000,1,  100.0,  9999.000, -9999.000,   1,1.0000
    22,'1 ',   632.000,   110.349,   999.000,  -999.000,0.99000,     0,   100.000, 0.00000E+0, 2.95000E-2, 0.00000E+0, 0.00000E+0,1.00000,1,  100.0,  9999.000, -9999.000,   1,1.0000
    23,'1 ',   503.000,   172.189,   999.000,  -999.000,1.00660,     0,   100.000, 0.00000E+0, 3.33000E-2, 0.00000E+0, 0.00000E+0,1.00000,1,  100.0,  9999.000, -9999.000,   1,1.0000
    24,'1 ',   700.000,   251.217,   999.000,  -999.000,1.05000,     0,   100.000, 0.00000E+0, 2.90000E-2, 0.00000E+0, 0.00000E+0,1.00000,1,  100.0,  9999.000, -9999.000,   1,1.0000
    25,'1 ',   560.000,   106.443,   999.000,  -999.000,1.06000,     0,   100.000, 0.00000E+0, 3.22000E-2, 0.00000E+0, 0.00000E+0,1.00000,1,  100.0,  9999.000, -9999.000,   1,1.0000
    26,'1 ',   800.000,    31.913,   999.000,  -999.000,1.02000,     0,  1000.000, 0.00000E+0, 3.13000E-1, 0.00000E+0, 0.00000E+0,1.00000,1,  100.0,  9999.000, -9999.000,   1,1.0000
    27,'1 ',   540.000,    45.069,   999.000,  -999.000,1.02000,     0,   100.000, 0.00000E+0, 3.00000E-2, 0.00000E+0, 0.00000E+0,1.00000,1,  100.0,  9999.000, -9999.000,   1,1.0000
    36,'1 ',   554.000,   216.776,   999.000,  -999.000,0.98000,     0,   100.000, 0.00000E+0, 4.60000E-2, 0.00000E+0, 0.00000E+0,1.00000,1,  100.0,  9999.000, -9999.000,   1,1.0000
    42,'1 ',   370.000,    39.887,   999.000,  -999.000,1.04000,     0,   100.000, 0.00000E+0, 4.45000E-2, 0.00000E+0, 0.00000E+0,1.00000,1,  100.0,  9999.000, -9999.000,   1,1.0000
    46,'1 ',   154.000,    57.498,   999.000,  -999.000,1.04000,     0,   100.000, 0.00000E+0, 4.13000E-2, 0.00000E+0, 0.00000E+0,1.00000,1,  100.0,  9999.000, -9999.000,   1,1.0000
    47,'1 ',   400.000,     2.791,   999.000,  -999.000,1.03000,     0,   100.000, 0.00000E+0, 7.82000E-2, 0.00000E+0, 0.00000E+0,1.00000,1,  100.0,  9999.000, -9999.000,   1,1.0000
    48,'1 ',   400.000,   135.026,   999.000,  -999.000,1.05000,     0,   100.000, 0.00000E+0, 7.82000E-2, 0.00000E+0, 0.00000E+0,1.00000,1,  100.0,  9999.000, -9999.000,   1,1.0000
    50,'1 ',   600.000,    92.376,   999.000,  -999.000,1.05000,     0,   100.000, 0.00000E+0, 5.90000E-2, 0.00000E+0, 0.00000E+0,1.00000,1,  100.0,  9999.000, -9999.000,   1,1.0000
    51,'1 ',   141.000,    23.848,   999.000,  -999.000,1.04000,     0,   100.000, 0.00000E+0, 4.13000E-2, 0.00000E+0, 0.00000E+0,1.00000,1,  100.0,  9999.000, -9999.000,   1,1.0000
    53,'1 ',   833.000,   177.965,   999.000,  -999.000,1.03000,     0,   100.000, 0.00000E+0, 2.00000E-2, 0.00000E+0, 0.00000E+0,1.00000,1,  100.0,  9999.000, -9999.000,   1,1.0000
    54,'1 ',  1115.000,   159.649,   999.000,  -999.000,1.04080,     0,   100.000, 0.00000E+0, 5.00000E-2, 0.00000E+0, 0.00000E+0,1.00000,1,  100.0,  9999.000, -9999.000,   1,1.0000
    55,'1 ',  1095.000,   198.602,   999.000,  -999.000,1.04000,     0,   100.000, 0.00000E+0, 3.02000E-2, 0.00000E+0, 0.00000E+0,1.00000,1,  100.0,  9999.000, -9999.000,   1,1.0000
    56,'1 ',   410.000,   164.867,   999.000,  -999.000,1.03000,     0,   100.000, 0.00000E+0, 5.15000E-2, 0.00000E+0, 0.00000E+0,1.00000,1,  100.0,  9999.000, -9999.000,   1,1.0000
    57,'1 ',   298.000,   -50.958,   999.000,  -999.000,1.03000,     0,   100.000, 0.00000E+0, 4.64000E-2, 0.00000E+0, 0.00000E+0,1.00000,1,  100.0,  9999.000, -9999.000,   1,1.0000
    60,'1 ',   410.000,    96.456,   999.000,  -999.000,1.04000,     0,   100.000, 0.00000E+0, 5.23000E-2, 0.00000E+0, 0.00000E+0,1.00000,1,  100.0,  9999.000, -9999.000,   1,1.0000
    61,'1 ',   194.000,   -20.989,   999.000,  -999.000,1.04000,     0,   100.000, 0.00000E+0, 9.47000E-2, 0.00000E+0, 0.00000E+0,1.00000,1,  100.0,  9999.000, -9999.000,   1,1.0000
    65,'1 ',    91.000,    53.842,   999.000,  -999.000,1.04000,     0,   100.000, 0.00000E+0, 2.00000E-2, 0.00000E+0, 0.00000E+0,1.00000,1,  100.0,  9999.000, -9999.000,   1,1.0000
    68,'1 ',    66.000,     2.177,   999.000,  -999.000,0.99000,     0,   100.000, 0.00000E+0, 2.00000E-2, 0.00000E+0, 0.00000E+0,1.00000,1,  100.0,  9999.000, -9999.000,   1,1.0000
    71,'1 ',   134.000,  -366.453,   999.000,  -999.000,1.00000,     0,   100.000, 0.00000E+0, 2.00000E-2, 0.00000E+0, 0.00000E+0,1.00000,1,  100.0,  9999.000, -9999.000,   1,1.0000
    72,'1 ',   150.000,   378.617,   999.000,  -999.000,1.05000,     0,   100.000, 0.00000E+0, 2.00000E-2, 0.00000E+0, 0.00000E+0,1.00000,1,  100.0,  9999.000, -9999.000,   1,1.0000
    78,'1 ',   460.556,    91.287,   999.000,  -999.000,1.02000,     0,   100.000, 0.00000E+0, 2.00000E-2, 0.00000E+0, 0.00000E+0,1.00000,1,  100.0,  9999.000, -9999.000,   1,1.0000
    79,'1 ',  1000.000,   257.345,   999.000,  -999.000,1.05000,     0,   100.000, 0.00000E+0, 2.80000E-2, 0.00000E+0, 0.00000E+0,1.00000,1,  100.0,  9999.000, -9999.000,   1,1.0000
    80,'1 ',   720.000,    -0.078,   999.000,  -999.000,1.02320,     0,   100.000, 0.00000E+0, 2.50000E-2, 0.00000E+0, 0.00000E+0,1.00000,1,  100.0,  9999.000, -9999.000,   1,1.0000
    82,'1 ',   460.000,   125.095,   999.000,  -999.000,1.05000,     0,   100.000, 0.00000E+0, 5.00000E-2, 0.00000E+0, 0.00000E+0,1.00000,1,  100.0,  9999.000, -9999.000,   1,1.0000
    86,'1 ',  1650.000,   578.493,   999.000,  -999.000,1.00000,     0,   100.000, 0.00000E+0, 1.00000E-2, 0.00000E+0, 0.00000E+0,1.00000,1,  100.0,  9999.000, -9999.000,   1,1.0000
    91,'1 ',   930.000,   999.000,   999.000,  -999.000,1.04000,     0,   100.000, 0.00000E+0, 2.00000E-2, 0.00000E+0, 0.00000E+0,1.00000,1,  100.0,  9999.000, -9999.000,   1,1.0000
    92,'1 ',   450.000,   324.719,   999.000,  -999.000,1.04000,     0,   100.000, 0.00000E+0, 2.00000E-2, 0.00000E+0, 0.00000E+0,1.00000,1,  100.0,  9999.000, -9999.000,   1,1.0000
    97,'1 ',   600.000,    93.260,   999.000,  -999.000,1.04000,     0,   100.000, 0.00000E+0, 2.00000E-2, 0.00000E+0, 0.00000E+0,1.00000,1,  100.0,  9999.000, -9999.000,   1,1.0000
    98,'1 ',   585.000,    18.956,   999.000,  -999.000,1.04000,     0,   100.000, 0.00000E+0, 1.50000E-2, 0.00000E+0, 0.00000E+0,1.00000,1,  100.0,  9999.000, -9999.000,   1,1.0000
   101,'1 ',  1200.000,   165.241,   999.000,  -999.000,1.05000,     0,   100.000, 0.00000E+0, 1.70000E-2, 0.00000E+0, 0.00000E+0,1.00000,1,  100.0,  9999.000, -9999.000,   1,1.0000
   115,'1 ',   550.000,   172.173,   999.000,  -999.000,1.02000,     0,   100.000, 0.00000E+0, 2.00000E-2, 0.00000E+0, 0.00000E+0,1.00000,1,  100.0,  9999.000, -9999.000,   1,1.0000
   119,'1 ',   550.000,   122.819,   999.000,  -999.000,1.00000,     0,   100.000, 0.00000E+0, 2.00000E-2, 0.00000E+0, 0.00000E+0,1.00000,1,  100.0,  9999.000, -9999.000,   1,1.0000
   120,'1 ',   700.000,    51.064,   999.000,  -999.000,1.02000,     0,   100.000, 0.00000E+0, 2.00000E-2, 0.00000E+0, 0.00000E+0,1.00000,1,  100.0,  9999.000, -9999.000,   1,1.0000
   121,'1 ',   145.000,    93.310,   999.000,  -999.000,1.04000,     0,   100.000, 0.00000E+0, 2.00000E-2, 0.00000E+0, 0.00000E+0,1.00000,1,  100.0,  9999.000, -9999.000,   1,1.0000
   122,'1 ',   155.000,   113.869,   999.000,  -999.000,1.05000,     0,   100.000, 0.00000E+0, 2.00000E-2, 0.00000E+0, 0.00000E+0,1.00000,1,  100.0,  9999.000, -9999.000,   1,1.0000
   123,'1 ',   655.000,    48.718,   999.000,  -999.000,1.01000,     0,   100.000, 0.00000E+0, 2.00000E-2, 0.00000E+0, 0.00000E+0,1.00000,1,  100.0,  9999.000, -9999.000,   1,1.0000
   130,'1 ',   490.000,  -453.839,   999.000,  -999.000,1.02000,     0,   100.000, 0.00000E+0, 2.00000E-2, 0.00000E+0, 0.00000E+0,1.00000,1,  100.0,  9999.000, -9999.000,   1,1.0000
   133,'1 ',  1700.000,  -139.669,   999.000,  -999.000,1.02000,     0,   100.000, 0.00000E+0, 2.00000E-2, 0.00000E+0, 0.00000E+0,1.00000,1,  100.0,  9999.000, -9999.000,   1,1.0000
   134,'1 ',   880.000,    47.611,   999.000,  -999.000,1.03000,     0,   100.000, 0.00000E+0, 2.00000E-2, 0.00000E+0, 0.00000E+0,1.00000,1,  100.0,  9999.000, -9999.000,   1,1.0000
   135,'1 ',  2330.000,   -99.874,   999.000,  -999.000,1.02000,     0,   100.000, 0.00000E+0, 2.00000E-2, 0.00000E+0, 0.00000E+0,1.00000,1,  100.0,  9999.000, -9999.000,   1,1.0000
   137,'1 ',    70.000,   174.720,   999.000,  -999.000,1.04000,     0,   100.000, 0.00000E+0, 2.00000E-2, 0.00000E+0, 0.00000E+0,1.00000,1,  100.0,  9999.000, -9999.000,   1,1.0000
   139,'1 ',   115.000,    18.488,   999.000,  -999.000,1.01000,     0,   100.000, 0.00000E+0, 2.00000E-2, 0.00000E+0, 0.00000E+0,1.00000,1,  100.0,  9999.000, -9999.000,   1,1.0000
 0 /End of Generator data, Begin Branch data
     1,      2,'1 ', 4.00000E-4, 4.30000E-3,   0.07000,    0.00,    0.00,    0.00,  0.00000,  0.00000,  0.00000,  0.00000,1,2,   0.00,   1,1.0000
     1,      4,'1 ', 4.00000E-4, 4.30000E-3,   0.07000,    0.00,    0.00,    0.00,  0.00000,  0.00000,  0.00000,  0.00000,1,2,   0.00,   1,1.0000
     2,     33,'1 ', 7.00000E-4, 8.20000E-3,   0.14000,    0.00,    0.00,    0.00,  0.00000,  0.00000,  0.00000,  0.00000,1,1,   0.00,   1,1.0000
     4,      5,'1 ', 9.00000E-4, 1.01000E-2,   0.17000,    0.00,    0.00,    0.00,  0.00000,  0.00000,  0.00000,  0.00000,1,2,   0.00,   1,1.0000
     5,      6,'1 ', 1.80000E-3, 2.17000E-2,   0.37000,    0.00,    0.00,    0.00,  0.00000,  0.00000,  0.00000,  0.00000,1,2,   0.00,   1,1.0000
     5,     31,'1 ', 8.00000E-4, 1.29000E-2,   0.14000,    0.00,    0.00,    0.00,  0.00000,  0.00000,  0.00000,  0.00000,1,1,   0.00,   1,1.0000
     6,      7,'1 ', 9.00000E-4, 9.40000E-3,   0.17000,    0.00,    0.00,    0.00,  0.00000,  0.00000,  0.00000,  0.00000,1,2,   0.00,   1,1.0000
     7,      8,'1 ', 7.00000E-4, 8.90000E-3,   0.13000,    0.00,    0.00,    0.00,  0.00000,  0.00000,  0.00000,  0.00000,1,2,   0.00,   1,1.0000
     7,     10,'1 ', 1.60000E-3, 1.95000E-2,   0.30000,    0.00,    0.00,    0.00,  0.00000,  0.00000,  0.00000,  0.00000,1,2,   0.00,   1,1.0000
     7,     12,'1 ', 8.00000E-4, 1.35000E-2,   0.25000,    0.00,    0.00,    0.00,  0.00000,  0.00000,  0.00000,  0.00000,1,2,   0.00,   1,1.0000
     7,     15,'1 ', 3.00000E-4, 5.90000E-3,   0.07000,    0.00,    0.00,    0.00,  0.00000,  0.00000,  0.00000,  0.00000,1,2,   0.00,   1,1.0000
     8,      9,'1 ', 7.00000E-4, 8.20000E-3,   0.13000,    0.00,    0.00,    0.00,  0.00000,  0.00000,  0.00000,  0.00000,1,2,   0.00,   1,1.0000
     8,     18,'1 ', 1.30000E-3, 1.73000E-2,   0.32000,    0.00,    0.00,    0.00,  0.00000,  0.00000,  0.00000,  0.00000,1,2,   0.00,   1,1.0000
     9,     30,'1 ', 1.10000E-3, 1.33000E-2,   0.21000,    0.00,    0.00,    0.00,  0.00000,  0.00000,  0.00000,  0.00000,1,1,   0.00,   1,1.0000
    12,     13,'1 ', 8.00000E-4, 1.40000E-2,   0.26000,    0.00,    0.00,    0.00,  0.00000,  0.00000,  0.00000,  0.00000,1,2,   0.00,   1,1.0000
    13,     14,'1 ', 6.00000E-4, 9.60000E-3,   0.18000,    0.00,    0.00,    0.00,  0.00000,  0.00000,  0.00000,  0.00000,1,2,   0.00,   1,1.0000
    14,     15,'1 ', 2.20000E-3, 3.50000E-2,   0.36000,    0.00,    0.00,    0.00,  0.00000,  0.00000,  0.00000,  0.00000,1,2,   0.00,   1,1.0000
    16,     17,'1 ', 3.20000E-3, 3.23000E-2,   0.53000,    0.00,    0.00,    0.00,  0.00000,  0.00000,  0.00000,  0.00000,1,2,   0.00,   1,1.0000
    16,     29,'1 ', 7.00000E-3, 8.60000E-3,   0.15000,    0.00,    0.00,    0.00,  0.00000,  0.00000,  0.00000,  0.00000,1,1,   0.00,   1,1.0000
    17,     18,'1 ', 1.40000E-3, 1.47000E-2,   0.24000,    0.00,    0.00,    0.00,  0.00000,  0.00000,  0.00000,  0.00000,1,2,   0.00,   1,1.0000
    17,     19,'1 ', 4.30000E-3, 4.74000E-2,   0.78000,    0.00,    0.00,    0.00,  0.00000,  0.00000,  0.00000,  0.00000,1,2,   0.00,   1,1.0000
    17,     20,'1 ', 5.70000E-3, 6.25000E-2,   1.03000,    0.00,    0.00,    0.00,  0.00000,  0.00000,  0.00000,  0.00000,1,2,   0.00,   1,1.0000
    19,     20,'1 ', 1.40000E-3, 1.51000E-2,   0.25000,    0.00,    0.00,    0.00,  0.00000,  0.00000,  0.00000,  0.00000,1,2,   0.00,   1,1.0000
    29,     30,'1 ', 1.30000E-3, 1.51000E-2,   0.26000,    0.00,    0.00,    0.00,  0.00000,  0.00000,  0.00000,  0.00000,1,2,   0.00,   1,1.0000
    29,     37,'1 ', 3.50000E-3, 4.11000E-2,   0.70000,    0.00,    0.00,    0.00,  0.00000,  0.00000,  0.00000,  0.00000,1,2,   0.00,   1,1.0000
    30,     31,'1 ', 1.30000E-3, 2.13000E-2,   0.22000,    0.00,    0.00,    0.00,  0.00000,  0.00000,  0.00000,  0.00000,1,2,   0.00,   1,1.0000
    31,     32,'1 ', 8.00000E-4, 1.28000E-2,   0.13000,    0.00,    0.00,    0.00,  0.00000,  0.00000,  0.00000,  0.00000,1,2,   0.00,   1,1.0000
    32,     33,'1 ', 2.00000E-4, 2.60000E-3,   0.04000,    0.00,    0.00,    0.00,  0.00000,  0.00000,  0.00000,  0.00000,1,2,   0.00,   1,1.0000
    32,     35,'1 ', 8.00000E-4, 1.12000E-2,   0.15000,    0.00,    0.00,    0.00,  0.00000,  0.00000,  0.00000,  0.00000,1,2,   0.00,   1,1.0000
    33,     34,'1 ', 6.00000E-4, 9.20000E-3,   0.11000,    0.00,    0.00,    0.00,  0.00000,  0.00000,  0.00000,  0.00000,1,2,   0.00,   1,1.0000
    34,     35,'1 ', 4.00000E-4, 4.60000E-3,   0.08000,    0.00,    0.00,    0.00,  0.00000,  0.00000,  0.00000,  0.00000,1,2,   0.00,   1,1.0000
    35,     73,'1 ', 2.30000E-3, 3.63000E-2,   0.38000,    0.00,    0.00,    0.00,  0.00000,  0.00000,  0.00000,  0.00000,1,2,   0.00,   1,1.0000
    37,     38,'1 ', 1.60000E-3, 1.63000E-2,   0.25000,    0.00,    0.00,    0.00,  0.00000,  0.00000,  0.00000,  0.00000,1,2,   0.00,   1,1.0000
    37,     39,'1 ', 8.00000E-4, 7.40000E-3,   0.48000,    0.00,    0.00,    0.00,  0.00000,  0.00000,  0.00000,  0.00000,1,2,   0.00,   1,1.0000
    37,     40,'1 ', 9.00000E-4, 3.15000E-2,   0.06000,    0.00,    0.00,    0.00,  0.00000,  0.00000,  0.00000,  0.00000,1,2,   0.00,   1,1.0000
    37,     43,'1 ', 1.30000E-3, 1.88000E-2,   1.31000,    0.00,    0.00,    0.00,  0.00000,  0.00000,  0.00000,  0.00000,1,2,   0.00,   1,1.0000
    38,     69,'1 ', 4.30000E-3, 4.85000E-2,   0.79000,    0.00,    0.00,    0.00,  0.00000,  0.00000,  0.00000,  0.00000,1,2,   0.00,   1,1.0000
    39,     73,'1 ', 1.90000E-3, 1.83000E-2,   0.29000,    0.00,    0.00,    0.00,  0.00000,  0.00000,  0.00000,  0.00000,1,2,   0.00,   1,1.0000
    39,     73,'2 ', 1.90000E-3, 1.83000E-2,   0.29000,    0.00,    0.00,    0.00,  0.00000,  0.00000,  0.00000,  0.00000,1,2,   0.00,   1,1.0000
    40,     44,'1 ', 8.00000E-3, 5.30000E-2,   0.40000,    0.00,    0.00,    0.00,  0.00000,  0.00000,  0.00000,  0.00000,1,2,   0.00,   1,1.0000
    41,     42,'1 ', 1.80000E-3, 8.90000E-3,   0.07000,    0.00,    0.00,    0.00,  0.00000,  0.00000,  0.00000,  0.00000,1,2,   0.00,   1,1.0000
    41,     45,'1 ', 7.76000E-2, 2.24100E-1,   0.13000,    0.00,    0.00,    0.00,  0.00000,  0.00000,  0.00000,  0.00000,1,2,   0.00,   1,1.0000
    43,     44,'1 ', 0.00000E+0, 1.10000E-2,   0.00000,    0.00,    0.00,    0.00,  0.00000,  0.00000,  0.00000,  0.00000,1,2,   0.00,   1,1.0000
    43,     50,'1 ', 2.50000E-3, 2.68000E-2,   0.40000,    0.00,    0.00,    0.00,  0.00000,  0.00000,  0.00000,  0.00000,1,2,   0.00,   1,1.0000
    43,     50,'2 ', 2.50000E-3, 2.68000E-2,   0.40000,    0.00,    0.00,    0.00,  0.00000,  0.00000,  0.00000,  0.00000,1,2,   0.00,   1,1.0000
    44,     45,'1 ', 0.00000E+0, 2.05000E-2,   0.00000,    0.00,    0.00,    0.00,  0.00000,  0.00000,  0.00000,  0.00000,1,2,   0.00,   1,1.0000
    44,     48,'1 ', 1.50000E-2, 1.05000E-1,   0.79000,    0.00,    0.00,    0.00,  0.00000,  0.00000,  0.00000,  0.00000,1,2,   0.00,   1,1.0000
    45,     46,'1 ', 1.23500E-1, 3.54800E-1,   0.16000,    0.00,    0.00,    0.00,  0.00000,  0.00000,  0.00000,  0.00000,1,2,   0.00,   1,1.0000
    45,     51,'1 ', 6.05000E-2, 1.89600E-1,   0.08000,    0.00,    0.00,    0.00,  0.00000,  0.00000,  0.00000,  0.00000,1,2,   0.00,   1,1.0000
    45,     71,'1 ', 1.75100E-1, 5.57500E-1,   0.12000,    0.00,    0.00,    0.00,  0.00000,  0.00000,  0.00000,  0.00000,1,2,   0.00,   1,1.0000
    46,     47,'1 ', 6.32000E-2, 1.21000E-1,   0.05000,    0.00,    0.00,    0.00,  0.00000,  0.00000,  0.00000,  0.00000,1,2,   0.00,   1,1.0000
    46,     49,'1 ', 1.64000E-1, 5.78000E-1,   0.06000,    0.00,    0.00,    0.00,  0.00000,  0.00000,  0.00000,  0.00000,1,2,   0.00,   1,1.0000
    47,     48,'1 ', 0.00000E+0, 3.30000E-2,   0.00000,    0.00,    0.00,    0.00,  0.00000,  0.00000,  0.00000,  0.00000,1,2,   0.00,   1,1.0000
    50,     51,'1 ', 0.00000E+0, 2.07000E-2,   0.00000,    0.00,    0.00,    0.00,  0.00000,  0.00000,  0.00000,  0.00000,1,2,   0.00,   1,1.0000
    50,     52,'1 ', 2.00000E-3, 2.20000E-2,   1.28000,    0.00,    0.00,    0.00,  0.00000,  0.00000,  0.00000,  0.00000,1,2,   0.00,   1,1.0000
    51,     53,'1 ', 8.44000E-2, 2.16100E-1,   0.22000,    0.00,    0.00,    0.00,  0.00000,  0.00000,  0.00000,  0.00000,1,2,   0.00,   1,1.0000
    51,     72,'1 ', 5.10000E-3, 2.32000E-2,   0.30000,    0.00,    0.00,    0.00,  0.00000,  0.00000,  0.00000,  0.00000,1,2,   0.00,   1,1.0000
    52,     53,'1 ', 1.40000E-3, 3.88000E-2,   0.00000,    0.00,    0.00,    0.00,  0.00000,  0.00000,  0.00000,  0.00000,1,2,   0.00,   1,1.0000
    53,     55,'1 ', 3.00000E-2, 1.07000E-1,   0.30000,    0.00,    0.00,    0.00,  0.00000,  0.00000,  0.00000,  0.00000,1,2,   0.00,   1,1.0000
    53,     65,'1 ', 3.50000E-2, 8.00000E-2,   0.05000,    0.00,    0.00,    0.00,  0.00000,  0.00000,  0.00000,  0.00000,1,2,   0.00,   1,1.0000
    54,     56,'1 ', 1.00000E-2, 8.00000E-3,   0.07000,    0.00,    0.00,    0.00,  0.00000,  0.00000,  0.00000,  0.00000,1,2,   0.00,   1,1.0000
    54,     62,'1 ', 8.00000E-3, 6.90000E-2,   0.13000,    0.00,    0.00,    0.00,  0.00000,  0.00000,  0.00000,  0.00000,1,2,   0.00,   1,1.0000
    54,    102,'1 ', 1.60000E-3, 2.48000E-2,   0.06000,    0.00,    0.00,    0.00,  0.00000,  0.00000,  0.00000,  0.00000,1,2,   0.00,   1,1.0000
    54,    103,'1 ', 1.60000E-3, 2.48000E-2,   0.06000,    0.00,    0.00,    0.00,  0.00000,  0.00000,  0.00000,  0.00000,1,2,   0.00,   1,1.0000
    55,     57,'1 ', 7.40000E-3, 4.00000E-2,   0.02000,    0.00,    0.00,    0.00,  0.00000,  0.00000,  0.00000,  0.00000,1,2,   0.00,   1,1.0000
    55,     59,'1 ', 1.60000E-2, 8.17000E-2,   0.04000,    0.00,    0.00,    0.00,  0.00000,  0.00000,  0.00000,  0.00000,1,2,   0.00,   1,1.0000
    56,     58,'1 ', 2.00000E-3, 1.50000E-2,   0.11000,    0.00,    0.00,    0.00,  0.00000,  0.00000,  0.00000,  0.00000,1,2,   0.00,   1,1.0000
    57,     59,'1 ', 1.40000E-2, 6.80000E-2,   0.03000,    0.00,    0.00,    0.00,  0.00000,  0.00000,  0.00000,  0.00000,1,2,   0.00,   1,1.0000
    58,     60,'1 ', 3.50000E-3, 3.44000E-2,   0.27000,    0.00,    0.00,    0.00,  0.00000,  0.00000,  0.00000,  0.00000,1,2,   0.00,   1,1.0000
    58,     62,'1 ', 2.00000E-3, 1.80000E-2,   0.03000,    0.00,    0.00,    0.00,  0.00000,  0.00000,  0.00000,  0.00000,1,2,   0.00,   1,1.0000
    59,     61,'1 ', 6.80000E-2, 1.43000E-1,   0.06000,    0.00,    0.00,    0.00,  0.00000,  0.00000,  0.00000,  0.00000,1,2,   0.00,   1,1.0000
    60,    140,'1 ', 3.90000E-3, 3.63000E-2,   0.07000,    0.00,    0.00,    0.00,  0.00000,  0.00000,  0.00000,  0.00000,1,2,   0.00,   1,1.0000
    62,     63,'1 ', 1.29000E-2, 8.03000E-2,   0.15000,    0.00,    0.00,    0.00,  0.00000,  0.00000,  0.00000,  0.00000,1,2,   0.00,   1,1.0000
    63,     64,'1 ', 0.00000E+0, 4.60000E-2,   0.00000,    0.00,    0.00,    0.00,  0.00000,  0.00000,  0.00000,  0.00000,1,2,   0.00,   1,1.0000
    63,     67,'1 ', 1.20000E-2, 9.30000E-2,   0.18000,    0.00,    0.00,    0.00,  0.00000,  0.00000,  0.00000,  0.00000,1,2,   0.00,   1,1.0000
    64,     65,'1 ', 3.50000E-2, 8.00000E-2,   0.05000,    0.00,    0.00,    0.00,  0.00000,  0.00000,  0.00000,  0.00000,1,2,   0.00,   1,1.0000
    64,     68,'1 ', 9.88000E-2, 2.31000E-1,   0.13000,    0.00,    0.00,    0.00,  0.00000,  0.00000,  0.00000,  0.00000,1,2,   0.00,   1,1.0000
    66,     67,'1 ', 0.00000E+0, 2.31000E-2,   0.00000,    0.00,    0.00,    0.00,  0.00000,  0.00000,  0.00000,  0.00000,1,2,   0.00,   1,1.0000
    66,     69,'1 ', 1.80000E-3, 2.74000E-2,   0.27000,    0.00,    0.00,    0.00,  0.00000,  0.00000,  0.00000,  0.00000,1,2,   0.00,   1,1.0000
    66,    134,'1 ', 7.60000E-4, 1.14100E-2,   1.16000,    0.00,    0.00,    0.00,  0.00000,  0.00000,  0.00000,  0.00000,1,2,   0.00,   1,1.0000
    67,     68,'1 ', 0.00000E+0, 4.90000E-2,   0.00000,    0.00,    0.00,    0.00,  0.00000,  0.00000,  0.00000,  0.00000,1,2,   0.00,   1,1.0000
    67,     70,'1 ', 7.00000E-3, 6.19000E-2,   0.12000,    0.00,    0.00,    0.00,  0.00000,  0.00000,  0.00000,  0.00000,1,2,   0.00,   1,1.0000
    67,    138,'1 ', 6.30000E-3, 4.91000E-2,   0.09000,    0.00,    0.00,    0.00,  0.00000,  0.00000,  0.00000,  0.00000,1,2,   0.00,   1,1.0000
    68,     71,'1 ', 1.20300E-1, 2.04800E-1,   0.07000,    0.00,    0.00,    0.00,  0.00000,  0.00000,  0.00000,  0.00000,1,2,   0.00,   1,1.0000
    69,     71,'1 ', 0.00000E+0, 3.75000E-2,   0.00000,    0.00,    0.00,    0.00,  0.00000,  0.00000,  0.00000,  0.00000,1,2,   0.00,   1,1.0000
    70,     71,'1 ', 0.00000E+0, 4.90000E-2,   0.00000,    0.00,    0.00,    0.00,  0.00000,  0.00000,  0.00000,  0.00000,1,2,   0.00,   1,1.0000
    71,     72,'1 ', 5.30000E-3, 1.35000E-2,   0.10000,    0.00,    0.00,    0.00,  0.00000,  0.00000,  0.00000,  0.00000,1,2,   0.00,   1,1.0000
    73,     74,'1 ', 2.20000E-3, 1.96000E-2,   0.34000,    0.00,    0.00,    0.00,  0.00000,  0.00000,  0.00000,  0.00000,1,2,   0.00,   1,1.0000
    73,     74,'2 ', 2.20000E-3, 1.96000E-2,   0.34000,    0.00,    0.00,    0.00,  0.00000,  0.00000,  0.00000,  0.00000,1,2,   0.00,   1,1.0000
    74,     77,'1 ', 3.00000E-4, 4.30000E-3,   0.08000,    0.00,    0.00,    0.00,  0.00000,  0.00000,  0.00000,  0.00000,1,2,   0.00,   1,1.0000
    74,     78,'1 ', 5.00000E-4, 4.50000E-3,   0.32000,    0.00,    0.00,    0.00,  0.00000,  0.00000,  0.00000,  0.00000,1,2,   0.00,   1,1.0000
    74,     78,'2 ', 5.00000E-4, 4.50000E-3,   0.32000,    0.00,    0.00,    0.00,  0.00000,  0.00000,  0.00000,  0.00000,1,2,   0.00,   1,1.0000
    75,    124,'1 ', 7.00000E-4, 1.75000E-2,   1.39000,    0.00,    0.00,    0.00,  0.00000,  0.00000,  0.00000,  0.00000,1,2,   0.00,   1,1.0000
    76,     77,'1 ', 3.00000E-3, 6.80000E-3,   1.37000,    0.00,    0.00,    0.00,  0.00000,  0.00000,  0.00000,  0.00000,1,2,   0.00,   1,1.0000
    78,     79,'1 ', 3.00000E-4, 1.53000E-2,   0.00000,    0.00,    0.00,    0.00,  0.00000,  0.00000,  0.00000,  0.00000,1,2,   0.00,   1,1.0000
    78,     80,'1 ', 1.35000E-2, 5.82000E-2,   0.50000,    0.00,    0.00,    0.00,  0.00000,  0.00000,  0.00000,  0.00000,1,2,   0.00,   1,1.0000
    78,     81,'1 ', 5.00000E-4, 2.76000E-2,   0.00000,    0.00,    0.00,    0.00,  0.00000,  0.00000,  0.00000,  0.00000,1,2,   0.00,   1,1.0000
    78,     82,'1 ', 5.00000E-4, 3.08000E-2,   0.00000,    0.00,    0.00,    0.00,  0.00000,  0.00000,  0.00000,  0.00000,1,2,   0.00,   1,1.0000
    81,    125,'1 ', 1.00000E-4, 1.10000E-3,   0.00000,    0.00,    0.00,    0.00,  0.00000,  0.00000,  0.00000,  0.00000,1,2,   0.00,   1,1.0000
    83,    112,'1 ', 1.85000E-2, 1.53700E-1,   0.00000,    0.00,    0.00,    0.00,  0.00000,  0.00000,  0.00000,  0.00000,1,1,   0.00,   1,1.0000
    83,    113,'1 ', 3.70000E-3, 2.02000E-2,   0.00000,    0.00,    0.00,    0.00,  0.00000,  0.00000,  0.00000,  0.00000,1,1,   0.00,   1,1.0000
    84,    116,'1 ', 1.50000E-3, 1.04500E-1,   0.00000,    0.00,    0.00,    0.00,  0.00000,  0.00000,  0.00000,  0.00000,1,2,   0.00,   1,1.0000
    85,     88,'1 ', 1.60000E-3, 2.02000E-2,   0.03000,    0.00,    0.00,    0.00,  0.00000,  0.00000,  0.00000,  0.00000,1,2,   0.00,   1,1.0000
    85,     88,'2 ', 1.60000E-3, 2.02000E-2,   0.03000,    0.00,    0.00,    0.00,  0.00000,  0.00000,  0.00000,  0.00000,1,2,   0.00,   1,1.0000
    85,    105,'1 ', 1.00000E-2, 1.09000E-1,   0.18000,    0.00,    0.00,    0.00,  0.00000,  0.00000,  0.00000,  0.00000,1,1,   0.00,   1,1.0000
    85,    105,'2 ', 1.00000E-2, 1.09000E-1,   0.18000,    0.00,    0.00,    0.00,  0.00000,  0.00000,  0.00000,  0.00000,1,1,   0.00,   1,1.0000
    85,    112,'1 ', 6.90000E-3, 5.95000E-2,   0.10000,    0.00,    0.00,    0.00,  0.00000,  0.00000,  0.00000,  0.00000,1,1,   0.00,   1,1.0000
    85,    112,'2 ', 6.90000E-3, 5.95000E-2,   0.10000,    0.00,    0.00,    0.00,  0.00000,  0.00000,  0.00000,  0.00000,1,1,   0.00,   1,1.0000
    87,    115,'1 ', 1.00000E-4, 1.80000E-3,   0.02000,    0.00,    0.00,    0.00,  0.00000,  0.00000,  0.00000,  0.00000,1,2,   0.00,   1,1.0000
    88,     89,'1 ', 5.00000E-4, 2.05000E-2,   0.00000,    0.00,    0.00,    0.00,  0.00000,  0.00000,  0.00000,  0.00000,1,2,   0.00,   1,1.0000
    88,    105,'1 ', 1.12000E-2, 9.93000E-2,   0.17000,    0.00,    0.00,    0.00,  0.00000,  0.00000,  0.00000,  0.00000,1,1,   0.00,   1,1.0000
    88,    105,'2 ', 1.12000E-2, 9.93000E-2,   0.17000,    0.00,    0.00,    0.00,  0.00000,  0.00000,  0.00000,  0.00000,1,1,   0.00,   1,1.0000
    89,     90,'1 ', 1.30000E-3, 4.90000E-3,   0.00000,    0.00,    0.00,    0.00,  0.00000,  0.00000,  0.00000,  0.00000,1,2,   0.00,   1,1.0000
    89,    105,'1 ', 8.94000E-2, 3.36300E-1,   0.00000,    0.00,    0.00,    0.00,  0.00000,  0.00000,  0.00000,  0.00000,1,1,   0.00,   1,1.0000
    89,    113,'1 ', 1.45600E-1, 4.11500E-1,   0.00000,    0.00,    0.00,    0.00,  0.00000,  0.00000,  0.00000,  0.00000,1,1,   0.00,   1,1.0000
    90,    114,'1 ', 2.40000E-3, 1.50000E-2,   0.00000,    0.00,    0.00,    0.00,  0.00000,  0.00000,  0.00000,  0.00000,1,2,   0.00,   1,1.0000
    91,     92,'1 ', 5.80000E-3, 9.28000E-2,   0.00000,    0.00,    0.00,    0.00,  0.00000,  0.00000,  0.00000,  0.00000,1,2,   0.00,   1,1.0000
    91,     93,'1 ', 4.21000E-2, 2.93200E-1,   0.00000,    0.00,    0.00,    0.00,  0.00000,  0.00000,  0.00000,  0.00000,1,2,   0.00,   1,1.0000
    91,     95,'1 ', 2.61000E-2, 1.84400E-1,   0.00000,    0.00,    0.00,    0.00,  0.00000,  0.00000,  0.00000,  0.00000,1,2,   0.00,   1,1.0000
    91,     98,'1 ', 1.20000E-2, 8.54000E-2,   0.00000,    0.00,    0.00,    0.00,  0.00000,  0.00000,  0.00000,  0.00000,1,2,   0.00,   1,1.0000
    91,    110,'1 ', 1.70000E-3, 1.17000E-2,   0.00000,    0.00,    0.00,    0.00,  0.00000,  0.00000,  0.00000,  0.00000,1,1,   0.00,   1,1.0000
    92,     97,'1 ', 8.00000E-4, 3.03000E-2,   0.00000,    0.00,    0.00,    0.00,  0.00000,  0.00000,  0.00000,  0.00000,1,2,   0.00,   1,1.0000
    93,     94,'1 ', 4.20000E-3, 2.83000E-2,   0.00000,    0.00,    0.00,    0.00,  0.00000,  0.00000,  0.00000,  0.00000,1,2,   0.00,   1,1.0000
    93,     95,'1 ', 1.87000E-2, 1.28400E-1,   0.00000,    0.00,    0.00,    0.00,  0.00000,  0.00000,  0.00000,  0.00000,1,2,   0.00,   1,1.0000
    94,    111,'1 ', 4.90000E-3, 3.36000E-2,   0.00000,    0.00,    0.00,    0.00,  0.00000,  0.00000,  0.00000,  0.00000,1,1,   0.00,   1,1.0000
    95,     96,'1 ', 1.36000E-2, 9.55000E-2,   0.00000,    0.00,    0.00,    0.00,  0.00000,  0.00000,  0.00000,  0.00000,1,2,   0.00,   1,1.0000
    96,     97,'1 ', 1.60000E-2, 7.67000E-2,   0.00000,    0.00,    0.00,    0.00,  0.00000,  0.00000,  0.00000,  0.00000,1,2,   0.00,   1,1.0000
    98,     99,'1 ', 3.00000E-4, 9.20000E-3,   0.00000,    0.00,    0.00,    0.00,  0.00000,  0.00000,  0.00000,  0.00000,1,2,   0.00,   1,1.0000
    99,    100,'1 ', 1.00000E-3, 7.02000E-2,   0.00000,    0.00,    0.00,    0.00,  0.00000,  0.00000,  0.00000,  0.00000,1,2,   0.00,   1,1.0000
   101,    104,'1 ', 7.70000E-3, 7.73000E-2,   0.00000,    0.00,    0.00,    0.00,  0.00000,  0.00000,  0.00000,  0.00000,1,2,   0.00,   1,1.0000
   101,    105,'1 ', 1.88000E-2, 1.49300E-1,   0.00000,    0.00,    0.00,    0.00,  0.00000,  0.00000,  0.00000,  0.00000,1,2,   0.00,   1,1.0000
   101,    107,'1 ', 7.60000E-3, 7.51000E-2,   0.00000,    0.00,    0.00,    0.00,  0.00000,  0.00000,  0.00000,  0.00000,1,2,   0.00,   1,1.0000
   101,    108,'1 ', 7.80000E-3, 7.72000E-2,   0.00000,    0.00,    0.00,    0.00,  0.00000,  0.00000,  0.00000,  0.00000,1,2,   0.00,   1,1.0000
   101,    109,'1 ', 7.80000E-3, 7.83000E-2,   0.00000,    0.00,    0.00,    0.00,  0.00000,  0.00000,  0.00000,  0.00000,1,2,   0.00,   1,1.0000
   101,    110,'1 ', 4.82000E-2, 2.63600E-1,   0.00000,    0.00,    0.00,    0.00,  0.00000,  0.00000,  0.00000,  0.00000,1,2,   0.00,   1,1.0000
   104,    106,'1 ', 1.80000E-3, 1.80000E-2,   0.00000,    0.00,    0.00,    0.00,  0.00000,  0.00000,  0.00000,  0.00000,1,2,   0.00,   1,1.0000
   104,    110,'1 ', 6.00000E-4, 6.20000E-3,   0.00000,    0.00,    0.00,    0.00,  0.00000,  0.00000,  0.00000,  0.00000,1,2,   0.00,   1,1.0000
   105,    106,'1 ', 1.65000E-2, 1.15600E-1,   0.00000,    0.00,    0.00,    0.00,  0.00000,  0.00000,  0.00000,  0.00000,1,2,   0.00,   1,1.0000
   105,    107,'1 ', 1.15000E-2, 1.10300E-1,   0.00000,    0.00,    0.00,    0.00,  0.00000,  0.00000,  0.00000,  0.00000,1,2,   0.00,   1,1.0000
   105,    111,'1 ', 1.31000E-2, 8.09000E-2,   0.13000,    0.00,    0.00,    0.00,  0.00000,  0.00000,  0.00000,  0.00000,1,2,   0.00,   1,1.0000
   105,    112,'1 ', 8.00000E-3, 4.97000E-2,   0.30000,    0.00,    0.00,    0.00,  0.00000,  0.00000,  0.00000,  0.00000,1,2,   0.00,   1,1.0000
   105,    113,'1 ', 3.82400E-1, 9.47900E-1,   0.00000,    0.00,    0.00,    0.00,  0.00000,  0.00000,  0.00000,  0.00000,1,2,   0.00,   1,1.0000
   107,    110,'1 ', 2.10000E-3, 1.86000E-2,   0.00000,    0.00,    0.00,    0.00,  0.00000,  0.00000,  0.00000,  0.00000,1,2,   0.00,   1,1.0000
   108,    110,'1 ', 2.60000E-3, 1.94000E-2,   0.00000,    0.00,    0.00,    0.00,  0.00000,  0.00000,  0.00000,  0.00000,1,2,   0.00,   1,1.0000
   108,    111,'1 ', 5.90000E-3, 5.77000E-2,   0.00000,    0.00,    0.00,    0.00,  0.00000,  0.00000,  0.00000,  0.00000,1,2,   0.00,   1,1.0000
   109,    110,'1 ', 2.60000E-3, 1.94000E-2,   0.00000,    0.00,    0.00,    0.00,  0.00000,  0.00000,  0.00000,  0.00000,1,2,   0.00,   1,1.0000
   109,    111,'1 ', 5.90000E-3, 5.77000E-2,   0.00000,    0.00,    0.00,    0.00,  0.00000,  0.00000,  0.00000,  0.00000,1,2,   0.00,   1,1.0000
   112,    113,'1 ', 1.01000E-2, 8.73000E-2,   0.00000,    0.00,    0.00,    0.00,  0.00000,  0.00000,  0.00000,  0.00000,1,2,   0.00,   1,1.0000
   114,    117,'1 ', 6.63000E-2, 3.69600E-1,   0.00000,    0.00,    0.00,    0.00,  0.00000,  0.00000,  0.00000,  0.00000,1,2,   0.00,   1,1.0000
   114,    119,'1 ', 8.76000E-2, 2.54000E-1,   0.00000,    0.00,    0.00,    0.00,  0.00000,  0.00000,  0.00000,  0.00000,1,2,   0.00,   1,1.0000
   114,    121,'1 ', 6.30000E-3, 8.02000E-2,   0.00000,    0.00,    0.00,    0.00,  0.00000,  0.00000,  0.00000,  0.00000,1,2,   0.00,   1,1.0000
   115,    116,'1 ', 7.33000E-2, 9.79900E-1,   0.00000,    0.00,    0.00,    0.00,  0.00000,  0.00000,  0.00000,  0.00000,1,2,   0.00,   1,1.0000
   115,    117,'1 ', 1.00000E-3, 1.14000E-2,   0.00000,    0.00,    0.00,    0.00,  0.00000,  0.00000,  0.00000,  0.00000,1,2,   0.00,   1,1.0000
   115,    118,'1 ', 1.65700E-1, 1.55100E-1,   0.00000,    0.00,    0.00,    0.00,  0.00000,  0.00000,  0.00000,  0.00000,1,2,   0.00,   1,1.0000
   115,    119,'1 ', 3.30000E-3, 3.92000E-2,   0.00000,    0.00,    0.00,    0.00,  0.00000,  0.00000,  0.00000,  0.00000,1,2,   0.00,   1,1.0000
   115,    121,'1 ', 2.20000E-2, 2.98400E-1,   0.00000,    0.00,    0.00,    0.00,  0.00000,  0.00000,  0.00000,  0.00000,1,2,   0.00,   1,1.0000
   115,    135,'1 ', 0.00000E+0, 6.30900E-1,   0.00000,    0.00,    0.00,    0.00,  0.00000,  0.00000,  0.00000,  0.00000,1,2,   0.00,   1,1.0000
   115,    139,'1 ', 0.00000E+0, 1.24300E-1,   0.00000,    0.00,    0.00,    0.00,  0.00000,  0.00000,  0.00000,  0.00000,1,2,   0.00,   1,1.0000
   116,    117,'1 ', 4.74000E-2, 2.63100E-1,   0.00000,    0.00,    0.00,    0.00,  0.00000,  0.00000,  0.00000,  0.00000,1,2,   0.00,   1,1.0000
   116,    118,'1 ', 1.17000E-2, 7.44000E-2,   0.00000,    0.00,    0.00,    0.00,  0.00000,  0.00000,  0.00000,  0.00000,1,2,   0.00,   1,1.0000
   116,    120,'1 ', 2.30700E-1, 7.04100E-1,   0.00000,    0.00,    0.00,    0.00,  0.00000,  0.00000,  0.00000,  0.00000,1,2,   0.00,   1,1.0000
   116,    121,'1 ', 9.51000E-2, 4.57600E-1,   0.00000,    0.00,    0.00,    0.00,  0.00000,  0.00000,  0.00000,  0.00000,1,2,   0.00,   1,1.0000
   116,    122,'1 ', 3.30000E-3, 1.28700E-1,   0.00000,    0.00,    0.00,    0.00,  0.00000,  0.00000,  0.00000,  0.00000,1,2,   0.00,   1,1.0000
   117,    118,'1 ', 2.00000E-3, 1.99000E-2,   0.00000,    0.00,    0.00,    0.00,  0.00000,  0.00000,  0.00000,  0.00000,1,2,   0.00,   1,1.0000
   117,    119,'1 ', 1.70000E-3, 1.89000E-2,   0.00000,    0.00,    0.00,    0.00,  0.00000,  0.00000,  0.00000,  0.00000,1,2,   0.00,   1,1.0000
   117,    120,'1 ', 6.70000E-3, 7.97000E-2,   0.00000,    0.00,    0.00,    0.00,  0.00000,  0.00000,  0.00000,  0.00000,1,2,   0.00,   1,1.0000
   117,    121,'1 ', 1.50000E-2, 8.69000E-2,   0.00000,    0.00,    0.00,    0.00,  0.00000,  0.00000,  0.00000,  0.00000,1,2,   0.00,   1,1.0000
   117,    122,'1 ', 3.83000E-2, 8.86000E-2,   0.00000,    0.00,    0.00,    0.00,  0.00000,  0.00000,  0.00000,  0.00000,1,2,   0.00,   1,1.0000
   118,    120,'1 ', 5.00000E-3, 6.29000E-2,   0.00000,    0.00,    0.00,    0.00,  0.00000,  0.00000,  0.00000,  0.00000,1,2,   0.00,   1,1.0000
   118,    121,'1 ', 1.39100E-1, 4.79800E-1,   0.00000,    0.00,    0.00,    0.00,  0.00000,  0.00000,  0.00000,  0.00000,1,2,   0.00,   1,1.0000
   118,    122,'1 ', 9.50000E-2, 5.07100E-1,   0.00000,    0.00,    0.00,    0.00,  0.00000,  0.00000,  0.00000,  0.00000,1,2,   0.00,   1,1.0000
   118,    123,'1 ', 1.40000E-3, 1.74000E-2,   0.00000,    0.00,    0.00,    0.00,  0.00000,  0.00000,  0.00000,  0.00000,1,2,   0.00,   1,1.0000
   119,    120,'1 ', 1.06500E-1, 3.49800E-1,   0.00000,    0.00,    0.00,    0.00,  0.00000,  0.00000,  0.00000,  0.00000,1,2,   0.00,   1,1.0000
   119,    121,'1 ', 1.63600E-1, 5.80400E-1,   0.00000,    0.00,    0.00,    0.00,  0.00000,  0.00000,  0.00000,  0.00000,1,2,   0.00,   1,1.0000
   121,    122,'1 ', 1.25000E-1, 4.69900E-1,   0.00000,    0.00,    0.00,    0.00,  0.00000,  0.00000,  0.00000,  0.00000,1,2,   0.00,   1,1.0000
   122,    135,'1 ', 5.73000E-2, 7.58100E-1,   0.00000,    0.00,    0.00,    0.00,  0.00000,  0.00000,  0.00000,  0.00000,1,2,   0.00,   1,1.0000
   122,    139,'1 ', 0.00000E+0, 1.53200E-1,   0.00000,    0.00,    0.00,    0.00,  0.00000,  0.00000,  0.00000,  0.00000,1,2,   0.00,   1,1.0000
   124,    125,'1 ', 2.50000E-3, 7.30000E-2,   0.00000,    0.00,    0.00,    0.00,  0.00000,  0.00000,  0.00000,  0.00000,1,2,   0.00,   1,1.0000
   124,    126,'1 ', 0.00000E+0, 8.39000E-2,   0.00000,    0.00,    0.00,    0.00,  0.00000,  0.00000,  0.00000,  0.00000,1,2,   0.00,   1,1.0000
   124,    127,'1 ', 4.00000E-4, 1.05000E-2,   0.72000,    0.00,    0.00,    0.00,  0.00000,  0.00000,  0.00000,  0.00000,1,2,   0.00,   1,1.0000
   124,    128,'1 ', 5.00000E-4, 1.17000E-2,   0.84000,    0.00,    0.00,    0.00,  0.00000,  0.00000,  0.00000,  0.00000,1,2,   0.00,   1,1.0000
   125,    126,'1 ', 0.00000E+0, 4.11000E-2,   0.00000,    0.00,    0.00,    0.00,  0.00000,  0.00000,  0.00000,  0.00000,1,2,   0.00,   1,1.0000
   125,    128,'1 ', 4.90000E-3, 2.63400E-1,   0.00000,    0.00,    0.00,    0.00,  0.00000,  0.00000,  0.00000,  0.00000,1,2,   0.00,   1,1.0000
   126,    127,'1 ', 0.00000E+0, 2.53200E-1,   0.00000,    0.00,    0.00,    0.00,  0.00000,  0.00000,  0.00000,  0.00000,1,2,   0.00,   1,1.0000
   126,    128,'1 ', 0.00000E+0, 2.74100E-1,   0.00000,    0.00,    0.00,    0.00,  0.00000,  0.00000,  0.00000,  0.00000,1,2,   0.00,   1,1.0000
   126,    138,'1 ', 0.00000E+0, 6.80500E-1,   0.00000,    0.00,    0.00,    0.00,  0.00000,  0.00000,  0.00000,  0.00000,1,2,   0.00,   1,1.0000
   127,    128,'1 ', 0.00000E+0, 1.33900E-1,   0.00000,    0.00,    0.00,    0.00,  0.00000,  0.00000,  0.00000,  0.00000,1,2,   0.00,   1,1.0000
   127,    132,'1 ', 9.00000E-4, 2.21000E-2,   1.62000,    0.00,    0.00,    0.00,  0.00000,  0.00000,  0.00000,  0.00000,1,2,   0.00,   1,1.0000
   128,    129,'1 ', 0.00000E+0, 1.38100E-1,   0.00000,    0.00,    0.00,    0.00,  0.00000,  0.00000,  0.00000,  0.00000,1,2,   0.00,   1,1.0000
   128,    130,'1 ', 7.00000E-4, 1.75000E-2,   1.26000,    0.00,    0.00,    0.00,  0.00000,  0.00000,  0.00000,  0.00000,1,2,   0.00,   1,1.0000
   129,    130,'1 ', 4.00000E-4, 8.50000E-3,   0.60000,    0.00,    0.00,    0.00,  0.00000,  0.00000,  0.00000,  0.00000,1,2,   0.00,   1,1.0000
   130,    131,'1 ', 2.00000E-4, 3.80000E-3,   0.54000,    0.00,    0.00,    0.00,  0.00000,  0.00000,  0.00000,  0.00000,1,2,   0.00,   1,1.0000
   130,    132,'1 ', 7.00000E-4, 1.73000E-2,   1.25000,    0.00,    0.00,    0.00,  0.00000,  0.00000,  0.00000,  0.00000,1,2,   0.00,   1,1.0000
   131,    133,'1 ', 2.00000E-3, 3.90000E-2,   2.77000,    0.00,    0.00,    0.00,  0.00000,  0.00000,  0.00000,  0.00000,1,2,   0.00,   1,1.0000
   131,    135,'1 ', 5.70000E-3, 6.99000E-2,   0.00000,    0.00,    0.00,    0.00,  0.00000,  0.00000,  0.00000,  0.00000,1,2,   0.00,   1,1.0000
   131,    139,'1 ', 5.90000E-3, 1.05200E-1,   0.00000,    0.00,    0.00,    0.00,  0.00000,  0.00000,  0.00000,  0.00000,1,2,   0.00,   1,1.0000
   132,    133,'1 ', 1.20000E-3, 2.93000E-2,   2.09000,    0.00,    0.00,    0.00,  0.00000,  0.00000,  0.00000,  0.00000,1,2,   0.00,   1,1.0000
   132,    134,'1 ', 2.35000E-3, 4.38800E-2,   0.00000,    0.00,    0.00,    0.00,  0.00000,  0.00000,  0.00000,  0.00000,1,2,   0.00,   1,1.0000
   132,    135,'1 ', 1.20000E-3, 2.88000E-2,   2.06000,    0.00,    0.00,    0.00,  0.00000,  0.00000,  0.00000,  0.00000,1,2,   0.00,   1,1.0000
   132,    138,'1 ', 3.31000E-2, 4.22400E-1,   0.00000,    0.00,    0.00,    0.00,  0.00000,  0.00000,  0.00000,  0.00000,1,2,   0.00,   1,1.0000
...
 0 /End of Branch data, Begin Transformer data
     1,    21,     0,'1 ',1,1,1, 0.00000E+0, 0.00000E+0,2,'TWO-WINDINGS',1,   1,1.0000
 0.00000E+0, 2.00000E-2,   100.00
1.07000,   0.000,   0.000,     0.00,     0.00,     0.00,-1,      0, 1.10000, 0.90000, 1.50000, 0.50000,  33, 0, 0.00000, 0.00000,  0.000
1.00000,   0.000
     3,     2,     0,'1 ',1,1,1, 0.00000E+0, 0.00000E+0,2,'TWO-WINDINGS',1,   1,1.0000
 1.60000E-3, 4.35000E-2,   100.00
1.06000,   0.000,   0.000,     0.00,     0.00,     0.00,-1,      0, 1.10000, 0.90000, 1.50000, 0.50000,  33, 0, 0.00000, 0.00000,  0.000
1.00000,   0.000
     3,     4,     0,'1 ',1,1,1, 0.00000E+0, 0.00000E+0,2,'TWO-WINDINGS',1,   1,1.0000
 1.60000E-3, 4.35000E-2,   100.00
1.06000,   0.000,   0.000,     0.00,     0.00,     0.00,-1,      0, 1.10000, 0.90000, 1.50000, 0.50000,  33, 0, 0.00000, 0.00000,  0.000
1.00000,   0.000
    10,    11,     0,'1 ',1,1,1, 0.00000E+0, 0.00000E+0,2,'TWO-WINDINGS',1,   1,1.0000
 7.00000E-4, 1.38000E-2,   100.00
1.06000,   0.000,   0.000,     0.00,     0.00,     0.00,-1,      0, 1.10000, 0.90000, 1.50000, 0.50000,  33, 0, 0.00000, 0.00000,  0.000
1.00000,   0.000
    10,    22,     0,'1 ',1,1,1, 0.00000E+0, 0.00000E+0,2,'TWO-WINDINGS',1,   1,1.0000
 7.00000E-4, 1.42000E-2,   100.00
1.07000,   0.000,   0.000,     0.00,     0.00,     0.00,-1,      0, 1.10000, 0.90000, 1.50000, 0.50000,  33, 0, 0.00000, 0.00000,  0.000
1.00000,   0.000
    11,    23,     0,'1 ',1,1,1, 0.00000E+0, 0.00000E+0,2,'TWO-WINDINGS',1,   1,1.0000
 9.00000E-4, 1.80000E-2,   100.00
1.00900,   0.000,   0.000,     0.00,     0.00,     0.00,-1,      0, 1.10000, 0.90000, 1.50000, 0.50000,  33, 0, 0.00000, 0.00000,  0.000
1.00000,   0.000
    13,    24,     0,'1 ',1,1,1, 0.00000E+0, 0.00000E+0,2,'TWO-WINDINGS',1,   1,1.0000
 0.00000E+0, 1.43000E-2,   100.00
1.02500,   0.000,   0.000,     0.00,     0.00,     0.00,-1,      0, 1.10000, 0.90000, 1.50000, 0.50000,  33, 0, 0.00000, 0.00000,  0.000
1.00000,   0.000
    14,    25,     0,'1 ',1,1,1, 0.00000E+0, 0.00000E+0,2,'TWO-WINDINGS',1,   1,1.0000
 5.00000E-4, 2.72000E-2,   100.00
1.00000,   0.000,   0.000,     0.00,     0.00,     0.00,-1,      0, 1.10000, 0.90000, 1.50000, 0.50000,  33, 0, 0.00000, 0.00000,  0.000
1.00000,   0.000
    16,    27,     0,'1 ',1,1,1, 0.00000E+0, 0.00000E+0,2,'TWO-WINDINGS',1,   1,1.0000
 6.00000E-4, 2.32000E-2,   100.00
1.02500,   0.000,   0.000,     0.00,     0.00,     0.00,-1,      0, 1.10000, 0.90000, 1.50000, 0.50000,  33, 0, 0.00000, 0.00000,  0.000
1.00000,   0.000
    20,    26,     0,'1 ',1,1,1, 0.00000E+0, 0.00000E+0,2,'TWO-WINDINGS',1,   1,1.0000
 8.00000E-4, 1.56000E-2,   100.00
1.02500,   0.000,   0.000,     0.00,     0.00,     0.00,-1,      0, 1.10000, 0.90000, 1.50000, 0.50000,  33, 0, 0.00000, 0.00000,  0.000
1.00000,   0.000
    28,    29,     0,'1 ',1,1,1, 0.00000E+0, 0.00000E+0,2,'TWO-WINDINGS',1,   1,1.0000
 0.00000E+0, 1.81000E-2,   100.00
1.02500,   0.000,   0.000,     0.00,     0.00,     0.00,-1,      0, 1.10000, 0.90000, 1.50000, 0.50000,  33, 0, 0.00000, 0.00000,  0.000
1.00000,   0.000
    33,    36,     0,'1 ',1,1,1, 0.00000E+0, 0.00000E+0,2,'TWO-WINDINGS',1,   1,1.0000
 0.00000E+0, 2.50000E-2,   100.00
1.07000,   0.000,   0.000,     0.00,     0.00,     0.00,-1,      0, 1.10000, 0.90000, 1.50000, 0.50000,  33, 0, 0.00000, 0.00000,  0.000
1.00000,   0.000
    40,    41,     0,'1 ',1,1,1, 0.00000E+0, 0.00000E+0,2,'TWO-WINDINGS',1,   1,1.0000
 0.00000E+0, 1.61000E-2,   100.00
0.95000,   0.000,   0.000,     0.00,     0.00,     0.00,-1,      0, 1.10000, 0.90000, 1.50000, 0.50000,  33, 0, 0.00000, 0.00000,  0.000
1.00000,   0.000
    49,    48,     0,'1 ',1,1,1, 0.00000E+0, 0.00000E+0,2,'TWO-WINDINGS',1,   1,1.0000
 1.56000E-2, 1.53600E-1,   100.00
1.01400,   0.000,   0.000,     0.00,     0.00,     0.00,-1,      0, 1.10000, 0.90000, 1.50000, 0.50000,  33, 0, 0.00000, 0.00000,  0.000
1.00000,   0.000
    48,   100,     0,'1 ',1,1,1, 0.00000E+0, 0.00000E+0,2,'TWO-WINDINGS',1,   1,1.0000
 1.00000E-3, 1.59500E-1,   100.00
0.97000,   0.000,   0.000,     0.00,     0.00,     0.00,-1,      0, 1.10000, 0.90000, 1.50000, 0.50000,  33, 0, 0.00000, 0.00000,  0.000
1.00000,   0.000
    54,    52,     0,'1 ',1,1,1, 0.00000E+0, 0.00000E+0,2,'TWO-WINDINGS',1,   1,1.0000
 2.00000E-3, 2.33000E-2,   100.00
1.00300,   0.000,   0.000,     0.00,     0.00,     0.00,-1,      0, 1.10000, 0.90000, 1.50000, 0.50000,  33, 0, 0.00000, 0.00000,  0.000
1.00000,   0.000
...